# DDEC6 charges by PACMAN v1.3 (https://github.com/mtap-research/PACMAN-charge/)
data_7111145_ASR_pacman
_symmetry_space_group_name_H-M   'P 1'
_cell_length_a   16.66470000
_cell_length_b   24.75850000
_cell_length_c   25.68361571
_cell_angle_alpha   90.00000000
_cell_angle_beta   129.21947140
_cell_angle_gamma   90.00000000
_symmetry_Int_Tables_number   1
_chemical_formula_structural   AgH5C8SO3
_chemical_formula_sum   'Ag32 H160 C256 S32 O96'
_cell_volume   8209.71673292
_cell_formula_units_Z   32
loop_
 _symmetry_equiv_pos_site_id
 _symmetry_equiv_pos_as_xyz
  1  'x, y, z'
loop_
 _atom_site_type_symbol
 _atom_site_label
 _atom_site_symmetry_multiplicity
 _atom_site_fract_x
 _atom_site_fract_y
 _atom_site_fract_z
 _atom_site_occupancy
 _atom_site_charge
Ag  Ag1  1  0.61185000  0.19739000  0.36808000  1.0 0.5800139202
Ag  Ag2  1  0.38815000  0.69739000  0.13192000  1.0 0.5800139202
Ag  Ag3  1  0.38815000  0.80261000  0.63192000  1.0 0.5800139202
Ag  Ag4  1  0.61185000  0.30261000  0.86808000  1.0 0.5800139202
Ag  Ag5  1  0.63107000  0.98870000  0.37788000  1.0 0.618955378
Ag  Ag6  1  0.36893000  0.48870000  0.12212000  1.0 0.618955378
Ag  Ag7  1  0.36893000  0.01130000  0.62212000  1.0 0.618955378
Ag  Ag8  1  0.63107000  0.51130000  0.87788000  1.0 0.618955378
Ag  Ag9  1  0.61485000  0.84271000  0.51745000  1.0 0.4203860802
Ag  Ag10  1  0.38515000  0.34271000  0.98255000  1.0 0.4203860802
Ag  Ag11  1  0.38515000  0.15729000  0.48255000  1.0 0.4203860802
Ag  Ag12  1  0.61485000  0.65729000  0.01745000  1.0 0.4203860802
Ag  Ag13  1  0.35287000  0.32981000  0.25888000  1.0 0.4529880626
Ag  Ag14  1  0.64713000  0.82981000  0.24112000  1.0 0.4529880626
Ag  Ag15  1  0.64713000  0.67019000  0.74112000  1.0 0.4529880626
Ag  Ag16  1  0.35287000  0.17019000  0.75888000  1.0 0.4529880626
Ag  Ag17  1  0.12226000  0.18827000  0.87365000  1.0 0.6001263303
Ag  Ag18  1  0.87774000  0.68827000  0.62635000  1.0 0.6001263303
Ag  Ag19  1  0.87774000  0.81173000  0.12635000  1.0 0.6001263303
Ag  Ag20  1  0.12226000  0.31173000  0.37365000  1.0 0.6001263303
Ag  Ag21  1  0.94176000  0.33157000  0.79376000  1.0 0.4788401169
Ag  Ag22  1  0.05824000  0.83157000  0.70624000  1.0 0.4788401169
Ag  Ag23  1  0.05824000  0.66843000  0.20624000  1.0 0.4788401169
Ag  Ag24  1  0.94176000  0.16843000  0.29376000  1.0 0.4788401169
Ag  Ag25  1  0.85842000  0.33811000  0.46027000  1.0 0.4286139054
Ag  Ag26  1  0.14158000  0.83811000  0.03973000  1.0 0.4286139054
Ag  Ag27  1  0.14158000  0.66189000  0.53973000  1.0 0.4286139054
Ag  Ag28  1  0.85842000  0.16189000  0.96027000  1.0 0.4286139054
Ag  Ag29  1  0.87398000  0.48614000  0.62456000  1.0 0.6063737912
Ag  Ag30  1  0.12602000  0.98614000  0.87544000  1.0 0.6063737912
Ag  Ag31  1  0.12602000  0.51386000  0.37544000  1.0 0.6063737912
Ag  Ag32  1  0.87398000  0.01386000  0.12456000  1.0 0.6063737912
H  H1  1  0.47050000  0.98030000  0.43660000  1.0 0.1197702675
H  H2  1  0.52950000  0.48030000  0.06340000  1.0 0.1197702675
H  H3  1  0.52950000  0.01970000  0.56340000  1.0 0.1197702675
H  H4  1  0.47050000  0.51970000  0.93660000  1.0 0.1197702675
H  H5  1  0.39450000  0.92890000  0.34080000  1.0 0.1197702675
H  H6  1  0.60550000  0.42890000  0.15920000  1.0 0.1197702675
H  H7  1  0.60550000  0.07110000  0.65920000  1.0 0.1197702675
H  H8  1  0.39450000  0.57110000  0.84080000  1.0 0.1197702675
H  H9  1  0.35690000  0.96820000  0.24460000  1.0 0.1417731168
H  H10  1  0.64310000  0.46820000  0.25540000  1.0 0.1417731168
H  H11  1  0.64310000  0.03180000  0.75540000  1.0 0.1417731168
H  H12  1  0.35690000  0.53180000  0.74460000  1.0 0.1417731168
H  H13  1  0.30690000  0.14810000  0.27590000  1.0 0.1197702675
H  H14  1  0.69310000  0.64810000  0.22410000  1.0 0.1197702675
H  H15  1  0.69310000  0.85190000  0.72410000  1.0 0.1197702675
H  H16  1  0.30690000  0.35190000  0.77590000  1.0 0.1197702675
H  H17  1  0.36120000  0.16210000  0.35030000  1.0 0.1288594797
H  H18  1  0.63880000  0.66210000  0.14970000  1.0 0.1288594797
H  H19  1  0.63880000  0.83790000  0.64970000  1.0 0.1288594797
H  H20  1  0.36120000  0.33790000  0.85030000  1.0 0.1288594797
H  H21  1  0.87260000  0.19520000  0.55350000  1.0 0.1197702675
H  H22  1  0.12740000  0.69520000  0.94650000  1.0 0.1197702675
H  H23  1  0.12740000  0.80480000  0.44650000  1.0 0.1197702675
H  H24  1  0.87260000  0.30480000  0.05350000  1.0 0.1197702675
H  H25  1  0.73510000  0.24350000  0.53480000  1.0 0.1288594797
H  H26  1  0.26490000  0.74350000  0.96520000  1.0 0.1288594797
H  H27  1  0.26490000  0.75650000  0.46520000  1.0 0.1288594797
H  H28  1  0.73510000  0.25650000  0.03480000  1.0 0.1288594797
H  H29  1  0.58180000  0.20070000  0.49360000  1.0 0.1417731168
H  H30  1  0.41820000  0.70070000  0.00640000  1.0 0.1417731168
H  H31  1  0.41820000  0.79930000  0.50640000  1.0 0.1417731168
H  H32  1  0.58180000  0.29930000  0.99360000  1.0 0.1417731168
H  H33  1  0.80060000  0.01070000  0.57620000  1.0 0.1136112727
H  H34  1  0.19940000  0.51070000  0.92380000  1.0 0.1136112727
H  H35  1  0.19940000  0.98930000  0.42380000  1.0 0.1136112727
H  H36  1  0.80060000  0.48930000  0.07620000  1.0 0.1136112727
H  H37  1  0.69250000  0.01810000  0.55720000  1.0 0.1136112727
H  H38  1  0.30750000  0.51810000  0.94280000  1.0 0.1136112727
H  H39  1  0.30750000  0.98190000  0.44280000  1.0 0.1136112727
H  H40  1  0.69250000  0.48190000  0.05720000  1.0 0.1136112727
H  H41  1  0.79660000  0.98130000  0.31900000  1.0 0.1197702675
H  H42  1  0.20340000  0.48130000  0.18100000  1.0 0.1197702675
H  H43  1  0.20340000  0.01870000  0.68100000  1.0 0.1197702675
H  H44  1  0.79660000  0.51870000  0.81900000  1.0 0.1197702675
H  H45  1  0.86990000  0.93280000  0.41850000  1.0 0.1197702675
H  H46  1  0.13010000  0.43280000  0.08150000  1.0 0.1197702675
H  H47  1  0.13010000  0.06720000  0.58150000  1.0 0.1197702675
H  H48  1  0.86990000  0.56720000  0.91850000  1.0 0.1197702675
H  H49  1  0.90890000  0.97650000  0.51320000  1.0 0.1288594797
H  H50  1  0.09110000  0.47650000  0.98680000  1.0 0.1288594797
H  H51  1  0.09110000  0.02350000  0.48680000  1.0 0.1288594797
H  H52  1  0.90890000  0.52350000  0.01320000  1.0 0.1288594797
H  H53  1  0.93080000  0.16070000  0.46530000  1.0 0.1197702675
H  H54  1  0.06920000  0.66070000  0.03470000  1.0 0.1197702675
H  H55  1  0.06920000  0.83930000  0.53470000  1.0 0.1197702675
H  H56  1  0.93080000  0.33930000  0.96530000  1.0 0.1197702675
H  H57  1  0.87610000  0.16740000  0.38950000  1.0 0.1288594797
H  H58  1  0.12390000  0.66740000  0.11050000  1.0 0.1288594797
H  H59  1  0.12390000  0.83260000  0.61050000  1.0 0.1288594797
H  H60  1  0.87610000  0.33260000  0.88950000  1.0 0.1288594797
H  H61  1  0.36830000  0.18490000  0.18540000  1.0 0.1288594797
H  H62  1  0.63170000  0.68490000  0.31460000  1.0 0.1288594797
H  H63  1  0.63170000  0.81510000  0.81460000  1.0 0.1288594797
H  H64  1  0.36830000  0.31510000  0.68540000  1.0 0.1288594797
H  H65  1  0.50050000  0.23510000  0.20080000  1.0 0.1288594797
H  H66  1  0.49950000  0.73510000  0.29920000  1.0 0.1288594797
H  H67  1  0.49950000  0.76490000  0.79920000  1.0 0.1288594797
H  H68  1  0.50050000  0.26490000  0.70080000  1.0 0.1288594797
H  H69  1  0.66020000  0.19750000  0.24810000  1.0 0.1417731168
H  H70  1  0.33980000  0.69750000  0.25190000  1.0 0.1417731168
H  H71  1  0.33980000  0.80250000  0.75190000  1.0 0.1417731168
H  H72  1  0.66020000  0.30250000  0.74810000  1.0 0.1417731168
H  H73  1  0.46110000  0.99920000  0.17820000  1.0 0.1197702675
H  H74  1  0.53890000  0.49920000  0.32180000  1.0 0.1197702675
H  H75  1  0.53890000  0.00080000  0.82180000  1.0 0.1197702675
H  H76  1  0.46110000  0.50080000  0.67820000  1.0 0.1197702675
H  H77  1  0.56800000  0.00900000  0.19610000  1.0 0.1197702675
H  H78  1  0.43200000  0.50900000  0.30390000  1.0 0.1197702675
H  H79  1  0.43200000  0.99100000  0.80390000  1.0 0.1197702675
H  H80  1  0.56800000  0.49100000  0.69610000  1.0 0.1197702675
H  H81  1  0.14840000  0.69110000  0.81800000  1.0 0.1197702675
H  H82  1  0.85160000  0.19110000  0.68200000  1.0 0.1197702675
H  H83  1  0.85160000  0.30890000  0.18200000  1.0 0.1197702675
H  H84  1  0.14840000  0.80890000  0.31800000  1.0 0.1197702675
H  H85  1  0.01620000  0.74390000  0.79990000  1.0 0.1288594797
H  H86  1  0.98380000  0.24390000  0.70010000  1.0 0.1288594797
H  H87  1  0.98380000  0.25610000  0.20010000  1.0 0.1288594797
H  H88  1  0.01620000  0.75610000  0.29990000  1.0 0.1288594797
H  H89  1  0.85690000  0.70550000  0.75470000  1.0 0.1417731168
H  H90  1  0.14310000  0.20550000  0.74530000  1.0 0.1417731168
H  H91  1  0.14310000  0.29450000  0.24530000  1.0 0.1417731168
H  H92  1  0.85690000  0.79450000  0.25470000  1.0 0.1417731168
H  H93  1  0.05410000  0.51020000  0.82710000  1.0 0.1197702675
H  H94  1  0.94590000  0.01020000  0.67290000  1.0 0.1197702675
H  H95  1  0.94590000  0.48980000  0.17290000  1.0 0.1197702675
H  H96  1  0.05410000  0.98980000  0.32710000  1.0 0.1197702675
H  H97  1  0.94690000  0.51900000  0.80890000  1.0 0.1197702675
H  H98  1  0.05310000  0.01900000  0.69110000  1.0 0.1197702675
H  H99  1  0.05310000  0.48100000  0.19110000  1.0 0.1197702675
H  H100  1  0.94690000  0.98100000  0.30890000  1.0 0.1197702675
H  H101  1  0.04010000  0.48240000  0.56780000  1.0 0.1197702675
H  H102  1  0.95990000  0.98240000  0.93220000  1.0 0.1197702675
H  H103  1  0.95990000  0.51760000  0.43220000  1.0 0.1197702675
H  H104  1  0.04010000  0.01760000  0.06780000  1.0 0.1197702675
H  H105  1  0.11580000  0.43210000  0.66620000  1.0 0.1288594797
H  H106  1  0.88420000  0.93210000  0.83380000  1.0 0.1288594797
H  H107  1  0.88420000  0.56790000  0.33380000  1.0 0.1288594797
H  H108  1  0.11580000  0.06790000  0.16620000  1.0 0.1288594797
H  H109  1  0.17050000  0.47470000  0.76360000  1.0 0.1288594797
H  H110  1  0.82950000  0.97470000  0.73640000  1.0 0.1288594797
H  H111  1  0.82950000  0.52530000  0.23640000  1.0 0.1288594797
H  H112  1  0.17050000  0.02530000  0.26360000  1.0 0.1288594797
H  H113  1  0.19140000  0.65890000  0.72820000  1.0 0.1136112727
H  H114  1  0.80860000  0.15890000  0.77180000  1.0 0.1136112727
H  H115  1  0.80860000  0.34110000  0.27180000  1.0 0.1136112727
H  H116  1  0.19140000  0.84110000  0.22820000  1.0 0.1136112727
H  H117  1  0.14640000  0.66830000  0.65450000  1.0 0.1288594797
H  H118  1  0.85360000  0.16830000  0.84550000  1.0 0.1288594797
H  H119  1  0.85360000  0.33170000  0.34550000  1.0 0.1288594797
H  H120  1  0.14640000  0.83170000  0.15450000  1.0 0.1288594797
H  H121  1  0.62370000  0.69240000  0.44300000  1.0 0.1197702675
H  H122  1  0.37630000  0.19240000  0.05700000  1.0 0.1197702675
H  H123  1  0.37630000  0.30760000  0.55700000  1.0 0.1197702675
H  H124  1  0.62370000  0.80760000  0.94300000  1.0 0.1197702675
H  H125  1  0.75880000  0.74220000  0.46030000  1.0 0.1288594797
H  H126  1  0.24120000  0.24220000  0.03970000  1.0 0.1288594797
H  H127  1  0.24120000  0.25780000  0.53970000  1.0 0.1288594797
H  H128  1  0.75880000  0.75780000  0.96030000  1.0 0.1288594797
H  H129  1  0.91810000  0.69930000  0.50610000  1.0 0.1417731168
H  H130  1  0.08190000  0.19930000  0.99390000  1.0 0.1417731168
H  H131  1  0.08190000  0.30070000  0.49390000  1.0 0.1417731168
H  H132  1  0.91810000  0.80070000  0.00610000  1.0 0.1417731168
H  H133  1  0.69550000  0.50660000  0.42980000  1.0 0.1197702675
H  H134  1  0.30450000  0.00660000  0.07020000  1.0 0.1197702675
H  H135  1  0.30450000  0.49340000  0.57020000  1.0 0.1197702675
H  H136  1  0.69550000  0.99340000  0.92980000  1.0 0.1197702675
H  H137  1  0.79520000  0.51800000  0.43890000  1.0 0.1197702675
H  H138  1  0.20480000  0.01800000  0.06110000  1.0 0.1197702675
H  H139  1  0.20480000  0.48200000  0.56110000  1.0 0.1197702675
H  H140  1  0.79520000  0.98200000  0.93890000  1.0 0.1197702675
H  H141  1  0.72190000  0.49040000  0.69270000  1.0 0.1197702675
H  H142  1  0.27810000  0.99040000  0.80730000  1.0 0.1197702675
H  H143  1  0.27810000  0.50960000  0.30730000  1.0 0.1197702675
H  H144  1  0.72190000  0.00960000  0.19270000  1.0 0.1197702675
H  H145  1  0.64450000  0.43780000  0.59650000  1.0 0.1288594797
H  H146  1  0.35550000  0.93780000  0.90350000  1.0 0.1288594797
H  H147  1  0.35550000  0.56220000  0.40350000  1.0 0.1288594797
H  H148  1  0.64450000  0.06220000  0.09650000  1.0 0.1288594797
H  H149  1  0.59750000  0.47850000  0.49720000  1.0 0.1288594797
H  H150  1  0.40250000  0.97850000  0.00280000  1.0 0.1288594797
H  H151  1  0.40250000  0.52150000  0.50280000  1.0 0.1288594797
H  H152  1  0.59750000  0.02150000  0.99720000  1.0 0.1288594797
H  H153  1  0.56990000  0.66360000  0.53590000  1.0 0.1197702675
H  H154  1  0.43010000  0.16360000  0.96410000  1.0 0.1197702675
H  H155  1  0.43010000  0.33640000  0.46410000  1.0 0.1197702675
H  H156  1  0.56990000  0.83640000  0.03590000  1.0 0.1197702675
H  H157  1  0.62640000  0.67200000  0.61180000  1.0 0.1288594797
H  H158  1  0.37360000  0.17200000  0.88820000  1.0 0.1288594797
H  H159  1  0.37360000  0.32800000  0.38820000  1.0 0.1288594797
H  H160  1  0.62640000  0.82800000  0.11180000  1.0 0.1288594797
C  C1  1  0.39440000  0.04480000  0.27990000  1.0 -0.019122844
C  C2  1  0.60560000  0.54480000  0.22010000  1.0 -0.019122844
C  C3  1  0.60560000  0.95520000  0.72010000  1.0 -0.019122844
C  C4  1  0.39440000  0.45520000  0.77990000  1.0 -0.019122844
C  C5  1  0.44040000  0.07590000  0.33850000  1.0 0.1417731168
C  C6  1  0.55960000  0.57590000  0.16150000  1.0 0.1417731168
C  C7  1  0.55960000  0.92410000  0.66150000  1.0 0.1417731168
C  C8  1  0.44040000  0.42410000  0.83850000  1.0 0.1417731168
C  C9  1  0.46720000  0.05210000  0.39640000  1.0 -0.0107236355
C  C10  1  0.53280000  0.55210000  0.10360000  1.0 -0.0107236355
C  C11  1  0.53280000  0.94790000  0.60360000  1.0 -0.0107236355
C  C12  1  0.46720000  0.44790000  0.89640000  1.0 -0.0107236355
C  C13  1  0.45100000  0.99680000  0.39670000  1.0 -0.1403421587
C  C14  1  0.54900000  0.49680000  0.10330000  1.0 -0.1403421587
C  C15  1  0.54900000  0.00320000  0.60330000  1.0 -0.1403421587
C  C16  1  0.45100000  0.50320000  0.89670000  1.0 -0.1403421587
C  C17  1  0.40760000  0.96620000  0.34050000  1.0 -0.1010499281
C  C18  1  0.59240000  0.46620000  0.15950000  1.0 -0.1010499281
C  C19  1  0.59240000  0.03380000  0.65950000  1.0 -0.1010499281
C  C20  1  0.40760000  0.53380000  0.84050000  1.0 -0.1010499281
C  C21  1  0.38250000  0.99000000  0.28270000  1.0 -0.1490826607
C  C22  1  0.61750000  0.49000000  0.21730000  1.0 -0.1490826607
C  C23  1  0.61750000  0.01000000  0.71730000  1.0 -0.1490826607
C  C24  1  0.38250000  0.51000000  0.78270000  1.0 -0.1490826607
C  C25  1  0.36730000  0.16320000  0.31600000  1.0 -0.1767346656
C  C26  1  0.63270000  0.66320000  0.18400000  1.0 -0.1767346656
C  C27  1  0.63270000  0.83680000  0.68400000  1.0 -0.1767346656
C  C28  1  0.36730000  0.33680000  0.81600000  1.0 -0.1767346656
C  C29  1  0.37710000  0.22100000  0.30300000  1.0 0.6001263303
C  C30  1  0.62290000  0.72100000  0.19700000  1.0 0.6001263303
C  C31  1  0.62290000  0.77900000  0.69700000  1.0 0.6001263303
C  C32  1  0.37710000  0.27900000  0.80300000  1.0 0.6001263303
C  C33  1  0.62670000  0.12600000  0.48850000  1.0 -0.0107236355
C  C34  1  0.37330000  0.62600000  0.01150000  1.0 -0.0107236355
C  C35  1  0.37330000  0.87400000  0.51150000  1.0 -0.0107236355
C  C36  1  0.62670000  0.37400000  0.98850000  1.0 -0.0107236355
C  C37  1  0.70850000  0.09600000  0.50060000  1.0 0.15140174
C  C38  1  0.29150000  0.59600000  0.99940000  1.0 0.15140174
C  C39  1  0.29150000  0.90400000  0.49940000  1.0 0.15140174
C  C40  1  0.70850000  0.40400000  0.00060000  1.0 0.15140174
C  C41  1  0.80070000  0.12150000  0.52520000  1.0 -0.019122844
C  C42  1  0.19930000  0.62150000  0.97480000  1.0 -0.019122844
C  C43  1  0.19930000  0.87850000  0.47480000  1.0 -0.019122844
C  C44  1  0.80070000  0.37850000  0.02520000  1.0 -0.019122844
C  C45  1  0.81050000  0.17710000  0.53740000  1.0 -0.1403421587
C  C46  1  0.18950000  0.67710000  0.96260000  1.0 -0.1403421587
C  C47  1  0.18950000  0.82290000  0.46260000  1.0 -0.1403421587
C  C48  1  0.81050000  0.32290000  0.03740000  1.0 -0.1403421587
C  C49  1  0.72790000  0.20590000  0.52570000  1.0 -0.1010499281
C  C50  1  0.27210000  0.70590000  0.97430000  1.0 -0.1010499281
C  C51  1  0.27210000  0.79410000  0.47430000  1.0 -0.1010499281
C  C52  1  0.72790000  0.29410000  0.02570000  1.0 -0.1010499281
C  C53  1  0.63710000  0.18070000  0.50140000  1.0 -0.1490826607
C  C54  1  0.36290000  0.68070000  0.99860000  1.0 -0.1490826607
C  C55  1  0.36290000  0.81930000  0.49860000  1.0 -0.1490826607
C  C56  1  0.63710000  0.31930000  0.00140000  1.0 -0.1490826607
C  C57  1  0.72810000  0.00690000  0.54130000  1.0 -0.1767346656
C  C58  1  0.27190000  0.50690000  0.95870000  1.0 -0.1767346656
C  C59  1  0.27190000  0.99310000  0.45870000  1.0 -0.1767346656
C  C60  1  0.72810000  0.49310000  0.04130000  1.0 -0.1767346656
C  C61  1  0.70350000  0.94780000  0.52070000  1.0 0.6001263303
C  C62  1  0.29650000  0.44780000  0.97930000  1.0 0.6001263303
C  C63  1  0.29650000  0.05220000  0.47930000  1.0 0.6001263303
C  C64  1  0.70350000  0.55220000  0.02070000  1.0 0.6001263303
C  C65  1  0.86100000  0.05170000  0.47060000  1.0 -0.030361506
C  C66  1  0.13900000  0.55170000  0.02940000  1.0 -0.030361506
C  C67  1  0.13900000  0.94830000  0.52940000  1.0 -0.030361506
C  C68  1  0.86100000  0.44830000  0.97060000  1.0 -0.030361506
C  C69  1  0.81230000  0.08150000  0.41030000  1.0 0.1666438622
C  C70  1  0.18770000  0.58150000  0.08970000  1.0 0.1666438622
C  C71  1  0.18770000  0.91850000  0.58970000  1.0 0.1666438622
C  C72  1  0.81230000  0.41850000  0.91030000  1.0 0.1666438622
C  C73  1  0.78850000  0.05420000  0.35360000  1.0 -0.030361506
C  C74  1  0.21150000  0.55420000  0.14640000  1.0 -0.030361506
C  C75  1  0.21150000  0.94580000  0.64640000  1.0 -0.030361506
C  C76  1  0.78850000  0.44580000  0.85360000  1.0 -0.030361506
C  C77  1  0.81140000  0.99900000  0.35700000  1.0 -0.1490826607
C  C78  1  0.18860000  0.49900000  0.14300000  1.0 -0.1490826607
C  C79  1  0.18860000  0.00100000  0.64300000  1.0 -0.1490826607
C  C80  1  0.81140000  0.50100000  0.85700000  1.0 -0.1490826607
C  C81  1  0.85580000  0.97030000  0.41650000  1.0 -0.1081245387
C  C82  1  0.14420000  0.47030000  0.08350000  1.0 -0.1081245387
C  C83  1  0.14420000  0.02970000  0.58350000  1.0 -0.1081245387
C  C84  1  0.85580000  0.52970000  0.91650000  1.0 -0.1081245387
C  C85  1  0.87990000  0.99630000  0.47320000  1.0 -0.1587549257
C  C86  1  0.12010000  0.49630000  0.02680000  1.0 -0.1587549257
C  C87  1  0.12010000  0.00370000  0.52680000  1.0 -0.1587549257
C  C88  1  0.87990000  0.50370000  0.97320000  1.0 -0.1587549257
C  C89  1  0.86790000  0.17040000  0.42280000  1.0 -0.1704126629
C  C90  1  0.13210000  0.67040000  0.07720000  1.0 -0.1704126629
C  C91  1  0.13210000  0.82960000  0.57720000  1.0 -0.1704126629
C  C92  1  0.86790000  0.32960000  0.92280000  1.0 -0.1704126629
C  C93  1  0.84060000  0.22850000  0.42550000  1.0 0.6001263303
C  C94  1  0.15940000  0.72850000  0.07450000  1.0 0.6001263303
C  C95  1  0.15940000  0.77150000  0.57450000  1.0 0.6001263303
C  C96  1  0.84060000  0.27150000  0.92550000  1.0 0.6001263303
C  C97  1  0.62220000  0.11970000  0.25580000  1.0 -0.0377298104
C  C98  1  0.37780000  0.61970000  0.24420000  1.0 -0.0377298104
C  C99  1  0.37780000  0.88030000  0.74420000  1.0 -0.0377298104
C  C100  1  0.62220000  0.38030000  0.75580000  1.0 -0.0377298104
C  C101  1  0.54350000  0.08970000  0.24570000  1.0 0.1417731168
C  C102  1  0.45650000  0.58970000  0.25430000  1.0 0.1417731168
C  C103  1  0.45650000  0.91030000  0.75430000  1.0 0.1417731168
C  C104  1  0.54350000  0.41030000  0.74570000  1.0 0.1417731168
C  C105  1  0.44910000  0.11380000  0.21980000  1.0 -0.019122844
C  C106  1  0.55090000  0.61380000  0.28020000  1.0 -0.019122844
C  C107  1  0.55090000  0.88620000  0.78020000  1.0 -0.019122844
C  C108  1  0.44910000  0.38620000  0.71980000  1.0 -0.019122844
C  C109  1  0.43240000  0.16830000  0.20310000  1.0 -0.1403421587
C  C110  1  0.56760000  0.66830000  0.29690000  1.0 -0.1403421587
C  C111  1  0.56760000  0.83170000  0.79690000  1.0 -0.1403421587
C  C112  1  0.43240000  0.33170000  0.70310000  1.0 -0.1403421587
C  C113  1  0.51210000  0.19800000  0.21320000  1.0 -0.1010499281
C  C114  1  0.48790000  0.69800000  0.28680000  1.0 -0.1010499281
C  C115  1  0.48790000  0.80200000  0.78680000  1.0 -0.1010499281
C  C116  1  0.51210000  0.30200000  0.71320000  1.0 -0.1010499281
C  C117  1  0.60640000  0.17580000  0.24010000  1.0 -0.1490826607
C  C118  1  0.39360000  0.67580000  0.25990000  1.0 -0.1490826607
C  C119  1  0.39360000  0.82420000  0.75990000  1.0 -0.1490826607
C  C120  1  0.60640000  0.32420000  0.74010000  1.0 -0.1490826607
C  C121  1  0.53400000  0.99830000  0.21330000  1.0 -0.1767346656
C  C122  1  0.46600000  0.49830000  0.28670000  1.0 -0.1767346656
C  C123  1  0.46600000  0.00170000  0.78670000  1.0 -0.1767346656
C  C124  1  0.53400000  0.50170000  0.71330000  1.0 -0.1767346656
C  C125  1  0.56660000  0.94120000  0.24050000  1.0 0.6001263303
C  C126  1  0.43340000  0.44120000  0.25950000  1.0 0.6001263303
C  C127  1  0.43340000  0.05880000  0.75950000  1.0 0.6001263303
C  C128  1  0.56660000  0.55880000  0.74050000  1.0 0.6001263303
C  C129  1  0.88090000  0.05030000  0.77610000  1.0 -0.019122844
C  C130  1  0.11910000  0.55030000  0.72390000  1.0 -0.019122844
C  C131  1  0.11910000  0.94970000  0.22390000  1.0 -0.019122844
C  C132  1  0.88090000  0.44970000  0.27610000  1.0 -0.019122844
C  C133  1  0.93060000  0.08070000  0.83570000  1.0 0.15140174
C  C134  1  0.06940000  0.58070000  0.66430000  1.0 0.15140174
C  C135  1  0.06940000  0.91930000  0.16430000  1.0 0.15140174
C  C136  1  0.93060000  0.41930000  0.33570000  1.0 0.15140174
C  C137  1  0.96200000  0.05500000  0.89440000  1.0 -0.019122844
C  C138  1  0.03800000  0.55500000  0.60560000  1.0 -0.019122844
C  C139  1  0.03800000  0.94500000  0.10560000  1.0 -0.019122844
C  C140  1  0.96200000  0.44500000  0.39440000  1.0 -0.019122844
C  C141  1  0.94160000  0.99960000  0.89290000  1.0 -0.1330078407
C  C142  1  0.05840000  0.49960000  0.60710000  1.0 -0.1330078407
C  C143  1  0.05840000  0.00040000  0.10710000  1.0 -0.1330078407
C  C144  1  0.94160000  0.50040000  0.39290000  1.0 -0.1330078407
C  C145  1  0.10540000  0.46980000  0.66600000  1.0 -0.1010499281
C  C146  1  0.89460000  0.96980000  0.83400000  1.0 -0.1010499281
C  C147  1  0.89460000  0.53020000  0.33400000  1.0 -0.1010499281
C  C148  1  0.10540000  0.03020000  0.16600000  1.0 -0.1010499281
C  C149  1  0.86360000  0.99500000  0.77670000  1.0 -0.1490826607
C  C150  1  0.13640000  0.49500000  0.72330000  1.0 -0.1490826607
C  C151  1  0.13640000  0.00500000  0.22330000  1.0 -0.1490826607
C  C152  1  0.86360000  0.50500000  0.27670000  1.0 -0.1490826607
C  C153  1  0.86790000  0.17020000  0.81510000  1.0 -0.1704126629
C  C154  1  0.13210000  0.67020000  0.68490000  1.0 -0.1704126629
C  C155  1  0.13210000  0.82980000  0.18490000  1.0 -0.1704126629
C  C156  1  0.86790000  0.32980000  0.31510000  1.0 -0.1704126629
C  C157  1  0.89350000  0.22800000  0.81130000  1.0 0.594718684
C  C158  1  0.10650000  0.72800000  0.68870000  1.0 0.594718684
C  C159  1  0.10650000  0.77200000  0.18870000  1.0 0.594718684
C  C160  1  0.89350000  0.27200000  0.31130000  1.0 0.594718684
C  C161  1  0.12710000  0.12340000  0.99010000  1.0 -0.019122844
C  C162  1  0.87290000  0.62340000  0.50990000  1.0 -0.019122844
C  C163  1  0.87290000  0.87660000  0.00990000  1.0 -0.019122844
C  C164  1  0.12710000  0.37660000  0.49010000  1.0 -0.019122844
C  C165  1  0.20790000  0.09520000  0.00010000  1.0 0.1417731168
C  C166  1  0.79210000  0.59520000  0.49990000  1.0 0.1417731168
C  C167  1  0.79210000  0.90480000  0.99990000  1.0 0.1417731168
C  C168  1  0.20790000  0.40480000  0.50010000  1.0 0.1417731168
C  C169  1  0.30120000  0.12020000  0.02490000  1.0 -0.0107236355
C  C170  1  0.69880000  0.62020000  0.47510000  1.0 -0.0107236355
C  C171  1  0.69880000  0.87980000  0.97510000  1.0 -0.0107236355
C  C172  1  0.30120000  0.37980000  0.52490000  1.0 -0.0107236355
C  C173  1  0.31310000  0.17500000  0.03970000  1.0 -0.1490826607
C  C174  1  0.68690000  0.67500000  0.46030000  1.0 -0.1490826607
C  C175  1  0.68690000  0.82500000  0.96030000  1.0 -0.1490826607
C  C176  1  0.31310000  0.32500000  0.53970000  1.0 -0.1490826607
C  C177  1  0.23240000  0.20480000  0.02920000  1.0 -0.1010499281
C  C178  1  0.76760000  0.70480000  0.47080000  1.0 -0.1010499281
C  C179  1  0.76760000  0.79520000  0.97080000  1.0 -0.1010499281
C  C180  1  0.23240000  0.29520000  0.52920000  1.0 -0.1010499281
C  C181  1  0.13780000  0.17900000  0.00290000  1.0 -0.1587549257
C  C182  1  0.86220000  0.67900000  0.49710000  1.0 -0.1587549257
C  C183  1  0.86220000  0.82100000  0.99710000  1.0 -0.1587549257
C  C184  1  0.13780000  0.32100000  0.50290000  1.0 -0.1587549257
C  C185  1  0.23110000  0.00530000  0.03960000  1.0 -0.1899877968
C  C186  1  0.76890000  0.50530000  0.46040000  1.0 -0.1899877968
C  C187  1  0.76890000  0.99470000  0.96040000  1.0 -0.1899877968
C  C188  1  0.23110000  0.49470000  0.53960000  1.0 -0.1899877968
C  C189  1  0.80260000  0.44760000  0.48170000  1.0 0.6001263303
C  C190  1  0.19740000  0.94760000  0.01830000  1.0 0.6001263303
C  C191  1  0.19740000  0.55240000  0.51830000  1.0 0.6001263303
C  C192  1  0.80260000  0.05240000  0.98170000  1.0 0.6001263303
C  C193  1  0.35480000  0.05400000  0.96380000  1.0 -0.019122844
C  C194  1  0.64520000  0.55400000  0.53620000  1.0 -0.019122844
C  C195  1  0.64520000  0.94600000  0.03620000  1.0 -0.019122844
C  C196  1  0.35480000  0.44600000  0.46380000  1.0 -0.019122844
C  C197  1  0.30680000  0.08550000  0.90510000  1.0 0.15140174
C  C198  1  0.69320000  0.58550000  0.59490000  1.0 0.15140174
C  C199  1  0.69320000  0.91450000  0.09490000  1.0 0.15140174
C  C200  1  0.30680000  0.41450000  0.40510000  1.0 0.15140174
C  C201  1  0.27690000  0.06080000  0.84710000  1.0 -0.0107236355
C  C202  1  0.72310000  0.56080000  0.65290000  1.0 -0.0107236355
C  C203  1  0.72310000  0.93920000  0.15290000  1.0 -0.0107236355
C  C204  1  0.27690000  0.43920000  0.34710000  1.0 -0.0107236355
C  C205  1  0.29670000  0.00640000  0.84720000  1.0 -0.1330078407
C  C206  1  0.70330000  0.50640000  0.65280000  1.0 -0.1330078407
C  C207  1  0.70330000  0.99360000  0.15280000  1.0 -0.1330078407
C  C208  1  0.29670000  0.49360000  0.34720000  1.0 -0.1330078407
C  C209  1  0.65690000  0.47510000  0.59580000  1.0 -0.1081245387
C  C210  1  0.34310000  0.97510000  0.90420000  1.0 -0.1081245387
C  C211  1  0.34310000  0.52490000  0.40420000  1.0 -0.1081245387
C  C212  1  0.65690000  0.02490000  0.09580000  1.0 -0.1081245387
C  C213  1  0.37170000  0.99950000  0.96340000  1.0 -0.1704126629
C  C214  1  0.62830000  0.49950000  0.53660000  1.0 -0.1704126629
C  C215  1  0.62830000  0.00050000  0.03660000  1.0 -0.1704126629
C  C216  1  0.37170000  0.50050000  0.46340000  1.0 -0.1704126629
C  C217  1  0.36710000  0.17460000  0.92230000  1.0 -0.1704126629
C  C218  1  0.63290000  0.67460000  0.57770000  1.0 -0.1704126629
C  C219  1  0.63290000  0.82540000  0.07770000  1.0 -0.1704126629
C  C220  1  0.36710000  0.32540000  0.42230000  1.0 -0.1704126629
C  C221  1  0.34510000  0.23340000  0.92800000  1.0 0.6001263303
C  C222  1  0.65490000  0.73340000  0.57200000  1.0 0.6001263303
C  C223  1  0.65490000  0.76660000  0.07200000  1.0 0.6001263303
C  C224  1  0.34510000  0.26660000  0.42800000  1.0 0.6001263303
C  C225  1  0.10760000  0.12920000  0.75310000  1.0 -0.019122844
C  C226  1  0.89240000  0.62920000  0.74690000  1.0 -0.019122844
C  C227  1  0.89240000  0.87080000  0.24690000  1.0 -0.019122844
C  C228  1  0.10760000  0.37080000  0.25310000  1.0 -0.019122844
C  C229  1  0.02950000  0.09740000  0.74410000  1.0 0.15140174
C  C230  1  0.97050000  0.59740000  0.75590000  1.0 0.15140174
C  C231  1  0.97050000  0.90260000  0.25590000  1.0 0.15140174
C  C232  1  0.02950000  0.40260000  0.24410000  1.0 0.15140174
C  C233  1  0.93510000  0.12070000  0.71750000  1.0 -0.030361506
C  C234  1  0.06490000  0.62070000  0.78250000  1.0 -0.030361506
C  C235  1  0.06490000  0.87930000  0.28250000  1.0 -0.030361506
C  C236  1  0.93510000  0.37930000  0.21750000  1.0 -0.030361506
C  C237  1  0.91680000  0.17540000  0.70050000  1.0 -0.1490826607
C  C238  1  0.08320000  0.67540000  0.79950000  1.0 -0.1490826607
C  C239  1  0.08320000  0.82460000  0.29950000  1.0 -0.1490826607
C  C240  1  0.91680000  0.32460000  0.20050000  1.0 -0.1490826607
C  C241  1  0.99510000  0.20650000  0.71110000  1.0 -0.1010499281
C  C242  1  0.00490000  0.70650000  0.78890000  1.0 -0.1010499281
C  C243  1  0.00490000  0.79350000  0.28890000  1.0 -0.1010499281
C  C244  1  0.99510000  0.29350000  0.21110000  1.0 -0.1010499281
C  C245  1  0.08970000  0.18360000  0.73760000  1.0 -0.1403421587
C  C246  1  0.91030000  0.68360000  0.76240000  1.0 -0.1403421587
C  C247  1  0.91030000  0.81640000  0.26240000  1.0 -0.1403421587
C  C248  1  0.08970000  0.31640000  0.23760000  1.0 -0.1403421587
C  C249  1  0.01860000  0.00770000  0.70770000  1.0 -0.1899877968
C  C250  1  0.98140000  0.50770000  0.79230000  1.0 -0.1899877968
C  C251  1  0.98140000  0.99230000  0.29230000  1.0 -0.1899877968
C  C252  1  0.01860000  0.49230000  0.20770000  1.0 -0.1899877968
C  C253  1  0.95360000  0.45030000  0.77000000  1.0 0.6001263303
C  C254  1  0.04640000  0.95030000  0.73000000  1.0 0.6001263303
C  C255  1  0.04640000  0.54970000  0.23000000  1.0 0.6001263303
C  C256  1  0.95360000  0.04970000  0.27000000  1.0 0.6001263303
S  S1  1  0.51540000  0.09190000  0.46920000  1.0 0.0018747951
S  S2  1  0.48460000  0.59190000  0.03080000  1.0 0.0018747951
S  S3  1  0.48460000  0.90810000  0.53080000  1.0 0.0018747951
S  S4  1  0.51540000  0.40810000  0.96920000  1.0 0.0018747951
S  S5  1  0.90990000  0.08480000  0.54720000  1.0 0.0190432384
S  S6  1  0.09010000  0.58480000  0.95280000  1.0 0.0190432384
S  S7  1  0.09010000  0.91520000  0.45280000  1.0 0.0190432384
S  S8  1  0.90990000  0.41520000  0.04720000  1.0 0.0190432384
S  S9  1  0.73880000  0.09100000  0.27940000  1.0 0.0380065744
S  S10  1  0.26120000  0.59100000  0.22060000  1.0 0.0380065744
S  S11  1  0.26120000  0.90900000  0.72060000  1.0 0.0380065744
S  S12  1  0.73880000  0.40900000  0.77940000  1.0 0.0380065744
S  S13  1  0.34350000  0.07490000  0.20130000  1.0 0.0077848258
S  S14  1  0.65650000  0.57490000  0.29870000  1.0 0.0077848258
S  S15  1  0.65650000  0.92510000  0.79870000  1.0 0.0077848258
S  S16  1  0.34350000  0.42510000  0.70130000  1.0 0.0077848258
S  S17  1  0.01460000  0.09170000  0.96890000  1.0 0.0190432384
S  S18  1  0.98540000  0.59170000  0.53110000  1.0 0.0190432384
S  S19  1  0.98540000  0.90830000  0.03110000  1.0 0.0190432384
S  S20  1  0.01460000  0.40830000  0.46890000  1.0 0.0190432384
S  S21  1  0.40800000  0.08400000  0.04330000  1.0 0.0077848258
S  S22  1  0.59200000  0.58400000  0.45670000  1.0 0.0077848258
S  S23  1  0.59200000  0.91600000  0.95670000  1.0 0.0077848258
S  S24  1  0.40800000  0.41600000  0.54330000  1.0 0.0077848258
S  S25  1  0.22210000  0.09950000  0.77290000  1.0 0.0077848258
S  S26  1  0.77790000  0.59950000  0.72710000  1.0 0.0077848258
S  S27  1  0.77790000  0.90050000  0.22710000  1.0 0.0077848258
S  S28  1  0.22210000  0.40050000  0.27290000  1.0 0.0077848258
S  S29  1  0.83000000  0.08180000  0.69820000  1.0 0.0190432384
S  S30  1  0.17000000  0.58180000  0.80180000  1.0 0.0190432384
S  S31  1  0.17000000  0.91820000  0.30180000  1.0 0.0190432384
S  S32  1  0.83000000  0.41820000  0.19820000  1.0 0.0190432384
O  O1  1  0.45550000  0.13150000  0.33690000  1.0 -0.2301439129
O  O2  1  0.54450000  0.63150000  0.16310000  1.0 -0.2301439129
O  O3  1  0.54450000  0.86850000  0.66310000  1.0 -0.2301439129
O  O4  1  0.45550000  0.36850000  0.83690000  1.0 -0.2301439129
O  O5  1  0.29260000  0.24760000  0.27110000  1.0 -0.5483181211
O  O6  1  0.70740000  0.74760000  0.22890000  1.0 -0.5483181211
O  O7  1  0.70740000  0.75240000  0.72890000  1.0 -0.5483181211
O  O8  1  0.29260000  0.25240000  0.77110000  1.0 -0.5483181211
O  O9  1  0.46090000  0.24030000  0.32210000  1.0 -0.5273112463
O  O10  1  0.53910000  0.74030000  0.17790000  1.0 -0.5273112463
O  O11  1  0.53910000  0.75970000  0.67790000  1.0 -0.5273112463
O  O12  1  0.46090000  0.25970000  0.82210000  1.0 -0.5273112463
O  O13  1  0.69680000  0.04050000  0.48570000  1.0 -0.2375220316
O  O14  1  0.30320000  0.54050000  0.01430000  1.0 -0.2375220316
O  O15  1  0.30320000  0.95950000  0.51430000  1.0 -0.2375220316
O  O16  1  0.69680000  0.45950000  0.98570000  1.0 -0.2375220316
O  O17  1  0.67370000  0.93320000  0.46420000  1.0 -0.5483181211
O  O18  1  0.32630000  0.43320000  0.03580000  1.0 -0.5483181211
O  O19  1  0.32630000  0.06680000  0.53580000  1.0 -0.5483181211
O  O20  1  0.67370000  0.56680000  0.96420000  1.0 -0.5483181211
O  O21  1  0.71650000  0.91720000  0.56470000  1.0 -0.5227154242
O  O22  1  0.28350000  0.41720000  0.93530000  1.0 -0.5227154242
O  O23  1  0.28350000  0.08280000  0.43530000  1.0 -0.5227154242
O  O24  1  0.71650000  0.58280000  0.06470000  1.0 -0.5227154242
O  O25  1  0.78710000  0.13450000  0.40630000  1.0 -0.1987536246
O  O26  1  0.21290000  0.63450000  0.09370000  1.0 -0.1987536246
O  O27  1  0.21290000  0.86550000  0.59370000  1.0 -0.1987536246
O  O28  1  0.78710000  0.36550000  0.90630000  1.0 -0.1987536246
O  O29  1  0.75360000  0.24210000  0.40450000  1.0 -0.514388557
O  O30  1  0.24640000  0.74210000  0.09550000  1.0 -0.514388557
O  O31  1  0.24640000  0.75790000  0.59550000  1.0 -0.514388557
O  O32  1  0.75360000  0.25790000  0.90450000  1.0 -0.514388557
O  O33  1  0.91830000  0.25990000  0.45310000  1.0 -0.5227154242
O  O34  1  0.08170000  0.75990000  0.04690000  1.0 -0.5227154242
O  O35  1  0.08170000  0.74010000  0.54690000  1.0 -0.5227154242
O  O36  1  0.91830000  0.24010000  0.95310000  1.0 -0.5227154242
O  O37  1  0.56140000  0.03520000  0.26590000  1.0 -0.2482355344
O  O38  1  0.43860000  0.53520000  0.23410000  1.0 -0.2482355344
O  O39  1  0.43860000  0.96480000  0.73410000  1.0 -0.2482355344
O  O40  1  0.56140000  0.46480000  0.76590000  1.0 -0.2482355344
O  O41  1  0.44190000  0.40840000  0.30110000  1.0 -0.5483181211
O  O42  1  0.55810000  0.90840000  0.19890000  1.0 -0.5483181211
O  O43  1  0.55810000  0.59160000  0.69890000  1.0 -0.5483181211
O  O44  1  0.44190000  0.09160000  0.80110000  1.0 -0.5483181211
O  O45  1  0.59510000  0.92940000  0.29700000  1.0 -0.5388299259
O  O46  1  0.40490000  0.42940000  0.20300000  1.0 -0.5388299259
O  O47  1  0.40490000  0.07060000  0.70300000  1.0 -0.5388299259
O  O48  1  0.59510000  0.57060000  0.79700000  1.0 -0.5388299259
O  O49  1  0.95380000  0.13490000  0.83820000  1.0 -0.2301439129
O  O50  1  0.04620000  0.63490000  0.66180000  1.0 -0.2301439129
O  O51  1  0.04620000  0.86510000  0.16180000  1.0 -0.2301439129
O  O52  1  0.95380000  0.36510000  0.33820000  1.0 -0.2301439129
O  O53  1  0.98490000  0.24140000  0.83800000  1.0 -0.5273112463
O  O54  1  0.01510000  0.74140000  0.66200000  1.0 -0.5273112463
O  O55  1  0.01510000  0.75860000  0.16200000  1.0 -0.5273112463
O  O56  1  0.98490000  0.25860000  0.33800000  1.0 -0.5273112463
O  O57  1  0.81950000  0.26030000  0.78200000  1.0 -0.5483181211
O  O58  1  0.18050000  0.76030000  0.71800000  1.0 -0.5483181211
O  O59  1  0.18050000  0.73970000  0.21800000  1.0 -0.5483181211
O  O60  1  0.81950000  0.23970000  0.28200000  1.0 -0.5483181211
O  O61  1  0.19320000  0.04020000  0.98250000  1.0 -0.2375220316
O  O62  1  0.80680000  0.54020000  0.51750000  1.0 -0.2375220316
O  O63  1  0.80680000  0.95980000  0.01750000  1.0 -0.2375220316
O  O64  1  0.19320000  0.45980000  0.48250000  1.0 -0.2375220316
O  O65  1  0.84370000  0.43270000  0.54030000  1.0 -0.5483181211
O  O66  1  0.15630000  0.93270000  0.95970000  1.0 -0.5483181211
O  O67  1  0.15630000  0.56730000  0.45970000  1.0 -0.5483181211
O  O68  1  0.84370000  0.06730000  0.04030000  1.0 -0.5483181211
O  O69  1  0.78490000  0.41830000  0.43570000  1.0 -0.5227154242
O  O70  1  0.21510000  0.91830000  0.06430000  1.0 -0.5227154242
O  O71  1  0.21510000  0.58170000  0.56430000  1.0 -0.5227154242
O  O72  1  0.78490000  0.08170000  0.93570000  1.0 -0.5227154242
O  O73  1  0.28470000  0.13900000  0.90550000  1.0 -0.2192682358
O  O74  1  0.71530000  0.63900000  0.59450000  1.0 -0.2192682358
O  O75  1  0.71530000  0.86100000  0.09450000  1.0 -0.2192682358
O  O76  1  0.28470000  0.36100000  0.40550000  1.0 -0.2192682358
O  O77  1  0.25450000  0.24530000  0.90600000  1.0 -0.5483181211
O  O78  1  0.74550000  0.74530000  0.59400000  1.0 -0.5483181211
O  O79  1  0.74550000  0.75470000  0.09400000  1.0 -0.5483181211
O  O80  1  0.25450000  0.25470000  0.40600000  1.0 -0.5483181211
O  O81  1  0.41760000  0.26490000  0.95240000  1.0 -0.5227154242
O  O82  1  0.58240000  0.76490000  0.54760000  1.0 -0.5227154242
O  O83  1  0.58240000  0.73510000  0.04760000  1.0 -0.5227154242
O  O84  1  0.41760000  0.23510000  0.45240000  1.0 -0.5227154242
O  O85  1  0.04830000  0.04320000  0.76260000  1.0 -0.2301439129
O  O86  1  0.95170000  0.54320000  0.73740000  1.0 -0.2301439129
O  O87  1  0.95170000  0.95680000  0.23740000  1.0 -0.2301439129
O  O88  1  0.04830000  0.45680000  0.26260000  1.0 -0.2301439129
O  O89  1  0.97130000  0.41950000  0.81520000  1.0 -0.5227154242
O  O90  1  0.02870000  0.91950000  0.68480000  1.0 -0.5227154242
O  O91  1  0.02870000  0.58050000  0.18480000  1.0 -0.5227154242
O  O92  1  0.97130000  0.08050000  0.31520000  1.0 -0.5227154242
O  O93  1  0.91720000  0.43550000  0.71250000  1.0 -0.5388299259
O  O94  1  0.08280000  0.93550000  0.78750000  1.0 -0.5388299259
O  O95  1  0.08280000  0.56450000  0.28750000  1.0 -0.5388299259
O  O96  1  0.91720000  0.06450000  0.21250000  1.0 -0.5388299259
